Circuit: * C:\Users\angel\Dropbox\AIC_group\AIC_spice simulations\Three_stage_CMOS_OTA.asc

Direct Newton iteration for .op point succeeded.

Date: Mon Jan 04 20:10:45 2021
Total elapsed time: 0.175 seconds.

tnom = 27
temp = 27
method = trap
totiter = 13
traniter = 0
tranpoints = 0
accept = 0
rejected = 0
matrix size = 17
fillins = 4
solver = Normal
Matrix Compiler1:      70 opcodes
Matrix Compiler2: 1.67 KB object code size
